/*--------------------------------*- C++ -*----------------------------------*\
  =========                 |
  \\      /  F ield         | OpenFOAM: The Open Source CFD Toolbox
   \\    /   O peration     | Website:  https://openfoam.org
    \\  /    A nd           | Version:  11
     \\/     M anipulation  |
\*---------------------------------------------------------------------------*/
FoamFile
{
    format      ascii;
    class       dictionary;
    location    "system";
    object      setFieldsDict;
}
// * * * * * * * * * * * * * * * * * * * * * * * * * * * * * * * * * * * * * //

defaultFieldValues
(
    volScalarFieldValue alpha.fe 0
);

regions
(
    boxToCell
    {
        box (-0.9e-06 -0.9e-06 0) (0.04e-06 0.04e-06 0.01e-06);
        fieldValues
        (
            volScalarFieldValue alpha.fe 1
        );
    }
);


// ************************************************************************* //
